/*--------------------------------*- C++ -*----------------------------------*\
| =========                 |                                                 |
| \\      /  F ield         | OpenFOAM: The Open Source CFD Toolbox           |
|  \\    /   O peration     | Version:  2412                                  |
|   \\  /    A nd           | Website:  www.openfoam.com                      |
|    \\/     M anipulation  |                                                 |
\*---------------------------------------------------------------------------*/
FoamFile
{
    version     2.0;
    format      ascii;
    arch        "LSB;label=32;scalar=64";
    class       polyBoundaryMesh;
    location    "constant/polyMesh";
    object      boundary;
}
// * * * * * * * * * * * * * * * * * * * * * * * * * * * * * * * * * * * * * //

6
(
    inlet
    {
        type            patch;
        nFaces          40;
        startFace       42186;
    }
    outlet
    {
        type            patch;
        nFaces          40;
        startFace       42226;
    }
    top
    {
        type            symmetryPlane;
        inGroups        1(symmetryPlane);
        nFaces          80;
        startFace       42266;
    }
    bottom
    {
        type            symmetryPlane;
        inGroups        1(symmetryPlane);
        nFaces          80;
        startFace       42346;
    }
    frontAndBack
    {
        type            empty;
        inGroups        1(empty);
        nFaces          13584;
        startFace       42426;
    }
    cylinder
    {
        type            wall;
        inGroups        1(wall);
        nFaces          576;
        startFace       56010;
    }
)

// ************************************************************************* //
