FoamFile
{
    version 2.0;
    format ascii;
    class dictionary;
    object snappyHexMeshDict;
}

castellatedMesh true;
snap true;
addLayers false;

// Geometry
geometry
{
    squareCylinder.stl
    {
        type triSurfaceMesh;
        name cylinder;
    }
};

// Castellated mesh
castellatedMeshControls
{
    resolveFeatureAngle 30;

    maxLocalCells 100000;
    maxGlobalCells 2000000;
    minRefinementCells 0;
    nCellsBetweenLevels 3;

    features ();

    refinementSurfaces
    {
        cylinder
        {
            level (2 2);
        }
    }

    refinementRegions
    {
        cylinder
        {
            mode distance;
            levels ((0.2 2) (0.5 1));
        }
    }

    locationInMesh (2 0 0);

    allowFreeStandingZoneFaces true;
}

// Snap
snapControls
{
    nSmoothPatch 3;
    tolerance 2.0;
    nSolveIter 30;
    nRelaxIter 5;
}

// Layers (not used)
addLayersControls
{
}

// Mesh quality
meshQualityControls
{
    maxNonOrtho 65;
    maxBoundarySkewness 20;
    maxInternalSkewness 4;
    maxConcave 80;
    minFlatness 0.5;
    minVol 1e-13;
    minTetQuality 1e-9;
    minArea -1;
    minTwist 0.02;
    minDeterminant 0.001;
    minFaceWeight 0.02;
    minVolRatio 0.01;
    minTriangleTwist -1;

    nSmoothScale 4;
    errorReduction 0.75;
}

mergeTolerance 1e-6;
